Input Parameters:
   integrator                     = md
   tinit                          = 0
   dt                             = 0.002
   nsteps                         = 50000000
   init-step                      = 0
   simulation-part                = 1
   comm-mode                      = Linear
   nstcomm                        = 100
   bd-fric                        = 0
   ld-seed                        = -550518487
   emtol                          = 10
   emstep                         = 0.01
   niter                          = 20
   fcstep                         = 0
   nstcgsteep                     = 1000
   nbfgscorr                      = 10
   rtpi                           = 0.05
   nstxout                        = 500000
   nstvout                        = 500000
   nstfout                        = 0
   nstlog                         = 500000
   nstcalcenergy                  = 100
   nstenergy                      = 500000
   nstxout-compressed             = 5000
   compressed-x-precision         = 1000
   cutoff-scheme                  = Verlet
   nstlist                        = 10
   ns-type                        = Grid
   pbc                            = xyz
   periodic-molecules             = false
   verlet-buffer-tolerance        = 0.005
   rlist                          = 1
   coulombtype                    = PME
   coulomb-modifier               = Potential-shift
   rcoulomb-switch                = 0
   rcoulomb                       = 1
   epsilon-r                      = 1
   epsilon-rf                     = inf
   vdw-type                       = Cut-off
   vdw-modifier                   = Potential-shift
   rvdw-switch                    = 0
   rvdw                           = 1
   DispCorr                       = EnerPres
   table-extension                = 1
   fourierspacing                 = 0.14
   fourier-nx                     = 25
   fourier-ny                     = 25
   fourier-nz                     = 25
   pme-order                      = 4
   ewald-rtol                     = 1e-05
   ewald-rtol-lj                  = 0.001
   lj-pme-comb-rule               = Geometric
   ewald-geometry                 = 0
   epsilon-surface                = 0
   tcoupl                         = V-rescale
   nsttcouple                     = 10
   nh-chain-length                = 0
   print-nose-hoover-chain-variables = false
   pcoupl                         = Parrinello-Rahman
   pcoupltype                     = Isotropic
   nstpcouple                     = 10
   tau-p                          = 2
   compressibility (3x3):
      compressibility[    0]={ 4.50000e-05,  0.00000e+00,  0.00000e+00}
      compressibility[    1]={ 0.00000e+00,  4.50000e-05,  0.00000e+00}
      compressibility[    2]={ 0.00000e+00,  0.00000e+00,  4.50000e-05}
   ref-p (3x3):
      ref-p[    0]={ 1.00000e+00,  0.00000e+00,  0.00000e+00}
      ref-p[    1]={ 0.00000e+00,  1.00000e+00,  0.00000e+00}
      ref-p[    2]={ 0.00000e+00,  0.00000e+00,  1.00000e+00}
   refcoord-scaling               = No
   posres-com (3):
      posres-com[0]= 0.00000e+00
      posres-com[1]= 0.00000e+00
      posres-com[2]= 0.00000e+00
   posres-comB (3):
      posres-comB[0]= 0.00000e+00
      posres-comB[1]= 0.00000e+00
      posres-comB[2]= 0.00000e+00
   QMMM                           = false
   QMconstraints                  = 0
   QMMMscheme                     = 0
   MMChargeScaleFactor            = 1
qm-opts:
   ngQM                           = 0
   constraint-algorithm           = Lincs
   continuation                   = true
   Shake-SOR                      = false
   shake-tol                      = 0.0001
   lincs-order                    = 4
   lincs-iter                     = 1
   lincs-warnangle                = 30
   nwall                          = 0
   wall-type                      = 9-3
   wall-r-linpot                  = -1
   wall-atomtype[0]               = -1
   wall-atomtype[1]               = -1
   wall-density[0]                = 0
   wall-density[1]                = 0
   wall-ewald-zfac                = 3
   pull                           = false
   awh                            = false
   rotation                       = false
   interactiveMD                  = false
   disre                          = No
   disre-weighting                = Conservative
   disre-mixed                    = false
   dr-fc                          = 1000
   dr-tau                         = 0
   nstdisreout                    = 100
   orire-fc                       = 0
   orire-tau                      = 0
   nstorireout                    = 100
   free-energy                    = no
   cos-acceleration               = 0
   deform (3x3):
      deform[    0]={ 0.00000e+00,  0.00000e+00,  0.00000e+00}
      deform[    1]={ 0.00000e+00,  0.00000e+00,  0.00000e+00}
      deform[    2]={ 0.00000e+00,  0.00000e+00,  0.00000e+00}
   simulated-tempering            = false
   swapcoords                     = no
   userint1                       = 0
   userint2                       = 0
   userint3                       = 0
   userint4                       = 0
   userreal1                      = 0
   userreal2                      = 0
   userreal3                      = 0
   userreal4                      = 0
   applied-forces:
     electric-field:
       x:
         E0                       = 0
         omega                    = 0
         t0                       = 0
         sigma                    = 0
       y:
         E0                       = 0
         omega                    = 0
         t0                       = 0
         sigma                    = 0
       z:
         E0                       = 0
         omega                    = 0
         t0                       = 0
         sigma                    = 0
grpopts:
   nrdf:     165.917     5835.08
   ref-t:         298         298
   tau-t:         0.1         0.1
annealing:          No          No
annealing-npoints:           0           0
   acc:	           0           0           0
   nfreeze:           N           N           N
   energygrp-flags[  0]: 0

Changing nstlist from 10 to 100, rlist from 1 to 1.159

Using 1 MPI thread
Using 8 OpenMP threads

1 GPU selected for this run.
Mapping of GPU IDs to the 2 GPU tasks in the 1 rank on this node:
  PP:0,PME:0
PP tasks will do (non-perturbed) short-ranged interactions on the GPU
PME tasks will do all aspects on the GPU
System total charge: 0.000
Will do PME sum in reciprocal space for electrostatic interactions.

Using a Gaussian width (1/beta) of 0.320163 nm for Ewald
Potential shift: LJ r^-12: -1.000e+00 r^-6: -1.000e+00, Ewald -1.000e-05
Initialized non-bonded Ewald correction tables, spacing: 9.33e-04 size: 1073

Long Range LJ corr.: <C6> 3.0898e-04
Generated table with 1079 data points for Ewald.
Tabscale = 500 points/nm
Generated table with 1079 data points for LJ6.
Tabscale = 500 points/nm
Generated table with 1079 data points for LJ12.
Tabscale = 500 points/nm
Generated table with 1079 data points for 1-4 COUL.
Tabscale = 500 points/nm
Generated table with 1079 data points for 1-4 LJ6.
Tabscale = 500 points/nm
Generated table with 1079 data points for 1-4 LJ12.
Tabscale = 500 points/nm

Using GPU 8x8 nonbonded short-range kernels

Using a dual 8x4 pair-list setup updated with dynamic, rolling pruning:
  outer list: updated every 100 steps, buffer 0.159 nm, rlist 1.159 nm
  inner list: updated every  10 steps, buffer 0.002 nm, rlist 1.002 nm
At tolerance 0.005 kJ/mol/ps per atom, equivalent classical 1x1 list would be:
  outer list: updated every 100 steps, buffer 0.308 nm, rlist 1.308 nm
  inner list: updated every  10 steps, buffer 0.043 nm, rlist 1.043 nm

Using Lorentz-Berthelot Lennard-Jones combination rule

Initializing LINear Constraint Solver

The number of constraints is 86

Center of mass motion removal mode is Linear
We have the following groups for center of mass motion removal:
  0:  rest

There are: 3003 Atoms

PLUMED: PLUMED is starting
PLUMED: Version: 2.5.2 (git: Unknown) compiled on Nov 29 2019 at 23:24:09
PLUMED: Please cite this paper when using PLUMED [1]
PLUMED: For further information see the PLUMED web page at http://www.plumed.org
PLUMED: Root: /home/dongdong/software/plumed252/lib/plumed
PLUMED: For installed feature, see /home/dongdong/software/plumed252/lib/plumed/src/config/config.txt
PLUMED: Molecular dynamics engine: gromacs
PLUMED: Precision of reals: 4
PLUMED: Running over 1 node
PLUMED: Number of threads: 8
PLUMED: Cache line size: 512
PLUMED: Number of atoms: 3003
PLUMED: File suffix:
PLUMED: FILE: plumed.bf.dat
PLUMED: Action TORSION
PLUMED:   with label dih-001-00
PLUMED:   between atoms 6 1 7 8
PLUMED:   using periodic boundary conditions
PLUMED: Action TORSION
PLUMED:   with label dih-001-01
PLUMED:   between atoms 1 7 8 11
PLUMED:   using periodic boundary conditions
PLUMED: Action TORSION
PLUMED:   with label dih-001-02
PLUMED:   between atoms 7 8 11 30
PLUMED:   using periodic boundary conditions
PLUMED: Action TORSION
PLUMED:   with label dih-002-00
PLUMED:   between atoms 8 11 30 31
PLUMED:   using periodic boundary conditions
PLUMED: Action TORSION
PLUMED:   with label dih-002-01
PLUMED:   between atoms 11 30 31 34
PLUMED:   using periodic boundary conditions
PLUMED: Action TORSION
PLUMED:   with label dih-002-02
PLUMED:   between atoms 30 31 34 53
PLUMED:   using periodic boundary conditions
PLUMED: Action TORSION
PLUMED:   with label dih-003-00
PLUMED:   between atoms 31 34 53 54
PLUMED:   using periodic boundary conditions
PLUMED: Action TORSION
PLUMED:   with label dih-003-01
PLUMED:   between atoms 34 53 54 57
PLUMED:   using periodic boundary conditions
PLUMED: Action TORSION
PLUMED:   with label dih-003-02
PLUMED:   between atoms 53 54 57 76
PLUMED:   using periodic boundary conditions
PLUMED: Action PRINT
PLUMED:   with label @9
PLUMED:   with stride 100
PLUMED:   with arguments dih-001-00 dih-001-01 dih-001-02 dih-002-00 dih-002-01 dih-002-02 dih-003-00 dih-003-01 dih-003-02
PLUMED:   on file plm.out
PLUMED:   with format  %f
PLUMED: END FILE: plumed.bf.dat
PLUMED: Timestep: 0.002000
PLUMED: KbT: 2.477710
PLUMED: Relevant bibliography:
PLUMED:   [1] Tribello, Bonomi, Branduardi, Camilloni, and Bussi, Comput. Phys. Commun. 185, 604 (2014)
PLUMED: Please read and cite where appropriate!
PLUMED: Finished setup
Started mdrun on rank 0 Thu Jun  4 11:36:07 2020

           Step           Time
              0        0.00000

   Energies (kJ/mol)
            U-B    Proper Dih.  Improper Dih.          LJ-14     Coulomb-14
    1.84787e+02    1.00769e+02    4.26367e+00    2.05031e+02    7.38118e+02
        LJ (SR)  Disper. corr.   Coulomb (SR)   Coul. recip.      Potential
    4.19880e+03   -3.93422e+02   -4.51648e+04    2.63855e+02   -3.98626e+04
    Kinetic En.   Total Energy  Conserved En.    Temperature Pres. DC (bar)
    8.26015e+03   -3.16024e+04   -3.16006e+04    3.31101e+02   -2.20732e+02
   -1.71677e+04    1.13442e-03

	<====  A V E R A G E S  ====>

	Statistics over 50000001 steps using 500001 frames

   Energies (kJ/mol)
            U-B    Proper Dih.  Improper Dih.          LJ-14     Coulomb-14
    2.03628e+02    8.72710e+01    4.23098e+00    2.77807e+02    7.36420e+02
        LJ (SR)  Disper. corr.   Coulomb (SR)   Coul. recip.      Potential
    4.40281e+03   -3.95829e+02   -4.53475e+04    2.16475e+02   -3.98147e+04
    Kinetic En.   Total Energy  Conserved En.    Temperature Pres. DC (bar)
    7.43472e+03   -3.23800e+04   -5.83064e+04    2.98014e+02   -2.23458e+02
 Pressure (bar)   Constr. rmsd
    1.36481e+00    0.00000e+00

          Box-X          Box-Y          Box-Z
    3.46643e+00    3.46643e+00    2.45113e+00

   Total Virial (kJ/mol)
    2.47821e+03    8.37442e-01    9.20518e-02
    8.37831e-01    2.47832e+03    1.22611e+00
    9.23734e-02    1.22612e+00    2.47928e+03

   Pressure (bar)
    1.81346e+00   -1.07360e+00   -7.64451e-02
   -1.07405e+00    1.59275e+00   -1.19823e+00
   -7.68045e-02   -1.19823e+00    6.88231e-01

    T-non-Water        T-Water
    2.97935e+02    2.98016e+02
